23
tmp_xyz_only.xyz    Empirical formula: C7H16
C        0.8280000000   -0.5939000000   -0.4105000000
C       -0.6074000000   -0.1292000000   -0.7341000000
C        1.6188000000    0.3738000000    0.4896000000
C       -1.5335000000    0.0189000000    0.4761000000
C        0.8379000000   -1.9975000000    0.2043000000
C        1.7539000000    1.7749000000   -0.0888000000
C       -2.8977000000    0.5530000000    0.0634000000
H        1.3601000000   -0.6621000000   -1.3694000000
H       -1.0561000000   -0.8490000000   -1.4317000000
H       -0.5655000000    0.8214000000   -1.2791000000
H        2.6287000000   -0.0297000000    0.6378000000
H        1.1655000000    0.4353000000    1.4856000000
H       -1.0999000000    0.7070000000    1.2088000000
H       -1.6692000000   -0.9475000000    0.9730000000
H        1.8635000000   -2.3744000000    0.2836000000
H        0.4049000000   -2.0040000000    1.2096000000
H        0.2737000000   -2.7005000000   -0.4174000000
H        2.1704000000    1.7451000000   -1.1005000000
H        2.4243000000    2.3747000000    0.5353000000
H        0.7895000000    2.2899000000   -0.1235000000
H       -3.3840000000   -0.1214000000   -0.6486000000
H       -2.8085000000    1.5396000000   -0.4023000000
H       -3.5477000000    0.6486000000    0.9389000000
